examples/analysis/sgip1/SGIP1d.glm
//Input feeder information for Taxonomy Feeders with different cases.
//Started on 10/21/09. This version created 10-Mar-2017 13:23:40.
// This version was created to perform FY11 Department of Energy
// analysis on the benefits of the SGIG grant projects.
// Copyright (c) 2017-2025 Battelle Memorial Institute
// file: SGIP1d.glm

clock {
     timezone PST+8PDT;
     starttime '2013-07-01 00:00:00';
     stoptime '2013-07-03 00:00:00';
}

#include "${SCHED_PATH}/appliance_schedules.glm";
#include "${SCHED_PATH}/water_and_setpoint_schedule_v5.glm";
#include "${SCHED_PATH}/commercial_schedules.glm";
//#define stylesheet=http://gridlab-d.svn.sourceforge.net/viewvc/gridlab-d/trunk/core/gridlabd-2_0
#set minimum_timestep=15;
#set profiler=1;
#set relax_naming_rules=1;
#set warn=0

module tape;
module generators;
module connection;
module climate;
module residential {
     implicit_enduses NONE;
};
module powerflow {
     solver_method NR;
};

object metrics_collector_writer {
     interval 300;
     interim 43200;
     filename ${METRICS_FILE};
};

object climate {
  name localWeather;
//  tmyfile "${TMY3_PATH}/AZ-Tucson_International_Ap.tmy3";
	latitude 32.133;
	longitude -111.95;
  tz_meridian -105.0;
  interpolate QUADRATIC;
};

// #include "outputs_sgip1.glm"

//Configurations

object regulator_configuration {
      name regulator_configuration_4384;
      name feeder_reg_cfg;
      Control OUTPUT_VOLTAGE;
      band_center 7520.0;
      band_width 120;
      connect_type WYE_WYE;
      time_delay 30;
      raise_taps 16;
      lower_taps 16;
      regulation 0.10;
      tap_pos_A 0;
      tap_pos_B 0;
      tap_pos_C 0;
}

object line_configuration {
      name line_configuration_16;
      conductor_A underground_line_conductor_2;
      conductor_N underground_line_conductor_2;
      spacing line_spacing_11;
}

object line_configuration {
      name line_configuration_17;
      conductor_B underground_line_conductor_2;
      conductor_N underground_line_conductor_2;
      spacing line_spacing_12;
}

object line_configuration {
      name line_configuration_18;
      conductor_A overhead_line_conductor_3;
      conductor_N overhead_line_conductor_3;
      spacing line_spacing_11;
}

object line_configuration {
      name line_configuration_19;
      conductor_A overhead_line_conductor_3;
      conductor_B overhead_line_conductor_3;
      conductor_C overhead_line_conductor_3;
      conductor_N overhead_line_conductor_3;
      spacing line_spacing_13;
}

object line_configuration {
      name line_configuration_20;
      conductor_C underground_line_conductor_2;
      conductor_N underground_line_conductor_2;
      spacing line_spacing_14;
}

object line_configuration {
      name line_configuration_21;
      conductor_C overhead_line_conductor_3;
      conductor_N overhead_line_conductor_3;
      spacing line_spacing_14;
}

object line_configuration {
      name line_configuration_22;
      conductor_A overhead_line_conductor_4;
      conductor_B overhead_line_conductor_4;
      conductor_C overhead_line_conductor_4;
      conductor_N overhead_line_conductor_4;
      spacing line_spacing_13;
}

object line_configuration {
      name line_configuration_23;
      conductor_A overhead_line_conductor_5;
      conductor_N overhead_line_conductor_5;
      spacing line_spacing_11;
}

object line_configuration {
      name line_configuration_24;
      conductor_C overhead_line_conductor_6;
      conductor_N overhead_line_conductor_6;
      spacing line_spacing_14;
}

object line_configuration {
      name line_configuration_25;
      conductor_A underground_line_conductor_7;
      conductor_B underground_line_conductor_7;
      conductor_C underground_line_conductor_7;
      conductor_N underground_line_conductor_7;
      spacing line_spacing_13;
}

object line_configuration {
      name line_configuration_26;
      conductor_A underground_line_conductor_8;
      conductor_B underground_line_conductor_8;
      conductor_C underground_line_conductor_8;
      conductor_N underground_line_conductor_8;
      spacing line_spacing_13;
}

object line_configuration {
      name line_configuration_27;
      conductor_A overhead_line_conductor_9;
      conductor_N overhead_line_conductor_9;
      spacing line_spacing_11;
}

object line_configuration {
      name line_configuration_28;
      conductor_B overhead_line_conductor_3;
      conductor_N overhead_line_conductor_3;
      spacing line_spacing_12;
}

object line_configuration {
      name line_configuration_29;
      conductor_A overhead_line_conductor_6;
      conductor_N overhead_line_conductor_6;
      spacing line_spacing_11;
}

object line_configuration {
      name line_configuration_30;
      conductor_C overhead_line_conductor_9;
      conductor_N overhead_line_conductor_9;
      spacing line_spacing_14;
}

object line_configuration {
      name line_configuration_31;
      conductor_A underground_line_conductor_2;
      conductor_C underground_line_conductor_2;
      conductor_N underground_line_conductor_2;
      spacing line_spacing_15;
}

object line_configuration {
      name line_configuration_32;
      conductor_A overhead_line_conductor_10;
      conductor_B overhead_line_conductor_10;
      conductor_C overhead_line_conductor_10;
      conductor_N overhead_line_conductor_10;
      spacing line_spacing_13;
}

object line_configuration {
      name line_configuration_33;
      conductor_B overhead_line_conductor_9;
      conductor_N overhead_line_conductor_9;
      spacing line_spacing_12;
}

object line_configuration {
      name line_configuration_34;
      conductor_B overhead_line_conductor_5;
      conductor_N overhead_line_conductor_5;
      spacing line_spacing_12;
}

object line_spacing {
      name line_spacing_11;
      distance_AN 51.6 in;
}

object line_spacing {
      name line_spacing_12;
      distance_BN 51.6 in;
}

object line_spacing {
      name line_spacing_13;
      distance_AB 57.6 in;
      distance_BC 57.6 in;
      distance_AC 57.6 in;
      distance_AN 51.6 in;
      distance_BN 51.6 in;
      distance_CN 51.6 in;
}

object line_spacing {
      name line_spacing_14;
      distance_CN 51.6 in;
}

object line_spacing {
      name line_spacing_15;
      distance_AC 57.6 in;
      distance_AN 51.6 in;
      distance_CN 51.6 in;
}

object overhead_line_conductor {
      name overhead_line_conductor_3;
      //name 123.3 AAAC;
      rating.summer.continuous 256.0;
      geometric_mean_radius 0.01200 ft;
      resistance 0.16600;
}

object overhead_line_conductor {
      name overhead_line_conductor_4;
      //name 336 ACSR;
      rating.summer.continuous 530.0;
      geometric_mean_radius 0.02300 ft;
      resistance 0.30300;
}

object overhead_line_conductor {
      name overhead_line_conductor_5;
      //name 2 AAAC;
      rating.summer.continuous 197.0;
      geometric_mean_radius 0.00883 ft;
      resistance 1.51970;
}

object overhead_line_conductor {
      name overhead_line_conductor_6;
      //name 2 CU;
      rating.summer.continuous 204.0;
      geometric_mean_radius 0.00836 ft;
      resistance 0.94500;
}

object overhead_line_conductor {
      name overhead_line_conductor_9;
      //name 2 ACSR;
      rating.summer.continuous 180.0;
      geometric_mean_radius 0.00418 ft;
      resistance 1.62570;
}

object overhead_line_conductor {
      name overhead_line_conductor_10;
      //name 636 AAC;
      rating.summer.continuous 858.0;
      geometric_mean_radius 0.02940 ft;
      resistance 0.16300;
}

object transformer_configuration {
      name transformer_configuration_3083;
      connect_type SINGLE_PHASE_CENTER_TAPPED;
      install_type PADMOUNT;
      primary_voltage 7216.88 V;
      secondary_voltage 120 V;
      power_rating 25.0;
      powerA_rating 25.0;
      resistance 0.00600;
      reactance 0.00400;
      shunt_impedance 339.610+287.181j;
}

object transformer_configuration {
      name transformer_configuration_3084;
      connect_type SINGLE_PHASE_CENTER_TAPPED;
      install_type PADMOUNT;
      primary_voltage 7216.88 V;
      secondary_voltage 120 V;
      power_rating 30.0;
      powerA_rating 30.0;
      resistance 0.00500;
      reactance 0.00333;
      shunt_impedance 350.040+295.721j;
}

object transformer_configuration {
      name transformer_configuration_3085;
      connect_type SINGLE_PHASE_CENTER_TAPPED;
      install_type PADMOUNT;
      primary_voltage 7216.88 V;
      secondary_voltage 120 V;
      power_rating 37.5;
      powerA_rating 37.5;
      resistance 0.00400;
      reactance 0.00267;
      shunt_impedance 365.685+397.393j;
}

object transformer_configuration {
      name transformer_configuration_3086;
      connect_type SINGLE_PHASE_CENTER_TAPPED;
      install_type POLETOP;
      primary_voltage 7216.88 V;
      secondary_voltage 120 V;
      power_rating 62.5;
      powerA_rating 62.5;
      resistance 0.00240;
      reactance 0.00160;
      shunt_impedance 417.835+411.761j;
}

object transformer_configuration {
      name transformer_configuration_3087;
      connect_type SINGLE_PHASE_CENTER_TAPPED;
      install_type POLETOP;
      primary_voltage 7216.88 V;
      secondary_voltage 120 V;
      power_rating 25.0;
      powerA_rating 25.0;
      resistance 0.00600;
      reactance 0.00400;
      shunt_impedance 339.610+326.493j;
}

object transformer_configuration {
      name transformer_configuration_3088;
      connect_type SINGLE_PHASE_CENTER_TAPPED;
      install_type PADMOUNT;
      primary_voltage 7216.88 V;
      secondary_voltage 120 V;
      power_rating 15.0;
      powerA_rating 15.0;
      resistance 0.01000;
      reactance 0.00667;
      shunt_impedance 318.750+360.704j;
}

object transformer_configuration {
      name transformer_configuration_3089;
      connect_type SINGLE_PHASE_CENTER_TAPPED;
      install_type POLETOP;
      primary_voltage 7216.88 V;
      secondary_voltage 120 V;
      power_rating 5;
      powerA_rating 5;
      resistance 0.015;
      reactance 0.01;
      shunt_impedance 297.890+274.164j;
}

object transformer_configuration {
      name transformer_configuration_3090;
      connect_type SINGLE_PHASE_CENTER_TAPPED;
      install_type PADMOUNT;
      primary_voltage 7216.88 V;
      secondary_voltage 120 V;
      power_rating 5;
      powerA_rating 5;
      resistance 0.015;
      reactance 0.01;
      shunt_impedance 297.890+301.925j;
}

object transformer_configuration {
      name transformer_configuration_3091;
      connect_type SINGLE_PHASE_CENTER_TAPPED;
      install_type POLETOP;
      primary_voltage 7216.88 V;
      secondary_voltage 120 V;
      power_rating 15.0;
      powerA_rating 15.0;
      resistance 0.01000;
      reactance 0.00667;
      shunt_impedance 318.750+332.068j;
}

object transformer_configuration {
      name transformer_configuration_3092;
      connect_type SINGLE_PHASE_CENTER_TAPPED;
      install_type POLETOP;
      primary_voltage 7216.88 V;
      secondary_voltage 120 V;
      power_rating 5.0;
      powerA_rating 5.0;
      resistance 0.015;
      reactance 0.01;
      shunt_impedance 297.890+322.313j;
}

object transformer_configuration {
      name transformer_configuration_3093;
      connect_type SINGLE_PHASE_CENTER_TAPPED;
      install_type POLETOP;
      primary_voltage 7216.88 V;
      secondary_voltage 120 V;
      power_rating 37.5;
      powerA_rating 37.5;
      resistance 0.00400;
      reactance 0.00267;
      shunt_impedance 365.685+334.443j;
}

object transformer_configuration {
      name transformer_configuration_3094;
      connect_type SINGLE_PHASE_CENTER_TAPPED;
      install_type POLETOP;
      primary_voltage 7216.88 V;
      secondary_voltage 120 V;
      power_rating 30.0;
      powerA_rating 30.0;
      resistance 0.00500;
      reactance 0.00333;
      shunt_impedance 350.040+362.548j;
}

object transformer_configuration {
      name transformer_configuration_3095;
      connect_type SINGLE_PHASE_CENTER_TAPPED;
      install_type POLETOP;
      primary_voltage 7216.88 V;
      secondary_voltage 120 V;
      power_rating 10.0;
      powerA_rating 10.0;
      resistance 0.015;
      reactance 0.01;
      shunt_impedance 308.320+393.061j;
}

object transformer_configuration {
      name transformer_configuration_3096;
      connect_type SINGLE_PHASE_CENTER_TAPPED;
      install_type PADMOUNT;
      primary_voltage 7216.88 V;
      secondary_voltage 120 V;
      power_rating 50.0;
      powerA_rating 50.0;
      resistance 0.00300;
      reactance 0.00200;
      shunt_impedance 391.760+332.488j;
}

object transformer_configuration {
      name transformer_configuration_3097;
      connect_type SINGLE_PHASE_CENTER_TAPPED;
      install_type PADMOUNT;
      primary_voltage 7216.88 V;
      secondary_voltage 120 V;
      power_rating 10.0;
      powerA_rating 10.0;
      resistance 0.015;
      reactance 0.01;
      shunt_impedance 308.320+321.700j;
}

object transformer_configuration {
      name transformer_configuration_3098;
      connect_type SINGLE_PHASE_CENTER_TAPPED;
      install_type POLETOP;
      primary_voltage 7216.88 V;
      secondary_voltage 120 V;
      power_rating 50.0;
      powerA_rating 50.0;
      resistance 0.00300;
      reactance 0.00200;
      shunt_impedance 391.760+382.759j;
}

object transformer_configuration {
      name transformer_configuration_3099;
      connect_type SINGLE_PHASE_CENTER_TAPPED;
      install_type PADMOUNT;
      primary_voltage 7216.88 V;
      secondary_voltage 120 V;
      power_rating 5.0;
      powerA_rating 5.0;
      resistance 0.015;
      reactance 0.01;
      shunt_impedance 297.890+273.252j;
}

object transformer_configuration {
      name transformer_configuration_3100;
      connect_type SINGLE_PHASE_CENTER_TAPPED;
      install_type POLETOP;
      primary_voltage 7216.88 V;
      secondary_voltage 120 V;
      power_rating 5.0;
      powerB_rating 5.0;
      resistance 0.015;
      reactance 0.01;
      shunt_impedance 297.890+273.106j;
}

object transformer_configuration {
      name transformer_configuration_3101;
      connect_type SINGLE_PHASE_CENTER_TAPPED;
      install_type PADMOUNT;
      primary_voltage 7216.88 V;
      secondary_voltage 120 V;
      power_rating 15.0;
      powerB_rating 15.0;
      resistance 0.01000;
      reactance 0.00667;
      shunt_impedance 318.750+334.621j;
}

object transformer_configuration {
      name transformer_configuration_3102;
      connect_type SINGLE_PHASE_CENTER_TAPPED;
      install_type POLETOP;
      primary_voltage 7216.88 V;
      secondary_voltage 120 V;
      power_rating 25.0;
      powerB_rating 25.0;
      resistance 0.00600;
      reactance 0.00400;
      shunt_impedance 339.610+418.251j;
}

object transformer_configuration {
      name transformer_configuration_3103;
      connect_type SINGLE_PHASE_CENTER_TAPPED;
      install_type PADMOUNT;
      primary_voltage 7216.88 V;
      secondary_voltage 120 V;
      power_rating 25.0;
      powerB_rating 25.0;
      resistance 0.00600;
      reactance 0.00400;
      shunt_impedance 339.610+312.651j;
}

object transformer_configuration {
      name transformer_configuration_3104;
      connect_type SINGLE_PHASE_CENTER_TAPPED;
      install_type PADMOUNT;
      primary_voltage 7216.88 V;
      secondary_voltage 120 V;
      power_rating 30.0;
      powerB_rating 30.0;
      resistance 0.00500;
      reactance 0.00333;
      shunt_impedance 350.040+368.976j;
}

object transformer_configuration {
      name transformer_configuration_3105;
      connect_type SINGLE_PHASE_CENTER_TAPPED;
      install_type POLETOP;
      primary_voltage 7216.88 V;
      secondary_voltage 120 V;
      power_rating 37.5;
      powerB_rating 37.5;
      resistance 0.00400;
      reactance 0.00267;
      shunt_impedance 365.685+345.241j;
}

object transformer_configuration {
      name transformer_configuration_3106;
      connect_type SINGLE_PHASE_CENTER_TAPPED;
      install_type POLETOP;
      primary_voltage 7216.88 V;
      secondary_voltage 120 V;
      power_rating 15.0;
      powerB_rating 15.0;
      resistance 0.01000;
      reactance 0.00667;
      shunt_impedance 318.750+381.753j;
}

object transformer_configuration {
      name transformer_configuration_3107;
      connect_type SINGLE_PHASE_CENTER_TAPPED;
      install_type PADMOUNT;
      primary_voltage 7216.88 V;
      secondary_voltage 120 V;
      power_rating 37.5;
      powerB_rating 37.5;
      resistance 0.00400;
      reactance 0.00267;
      shunt_impedance 365.685+385.602j;
}

object transformer_configuration {
      name transformer_configuration_3108;
      connect_type SINGLE_PHASE_CENTER_TAPPED;
      install_type POLETOP;
      primary_voltage 7216.88 V;
      secondary_voltage 120 V;
      power_rating 30.0;
      powerB_rating 30.0;
      resistance 0.00500;
      reactance 0.00333;
      shunt_impedance 350.040+345.213j;
}

object transformer_configuration {
      name transformer_configuration_3109;
      connect_type SINGLE_PHASE_CENTER_TAPPED;
      install_type POLETOP;
      primary_voltage 7216.88 V;
      secondary_voltage 120 V;
      power_rating 10.0;
      powerB_rating 10.0;
      resistance 0.015;
      reactance 0.01;
      shunt_impedance 308.320+327.432j;
}

object transformer_configuration {
      name transformer_configuration_3110;
      connect_type SINGLE_PHASE_CENTER_TAPPED;
      install_type POLETOP;
      primary_voltage 7216.88 V;
      secondary_voltage 120 V;
      power_rating 50.0;
      powerB_rating 50.0;
      resistance 0.00300;
      reactance 0.00200;
      shunt_impedance 391.760+391.541j;
}

object transformer_configuration {
      name transformer_configuration_3111;
      connect_type SINGLE_PHASE_CENTER_TAPPED;
      install_type PADMOUNT;
      primary_voltage 7216.88 V;
      secondary_voltage 120 V;
      power_rating 10.0;
      powerB_rating 10.0;
      resistance 0.015;
      reactance 0.01;
      shunt_impedance 308.320+342.457j;
}

object transformer_configuration {
      name transformer_configuration_3112;
      connect_type SINGLE_PHASE_CENTER_TAPPED;
      install_type PADMOUNT;
      primary_voltage 7216.88 V;
      secondary_voltage 120 V;
      power_rating 5.0;
      powerB_rating 5.0;
      resistance 0.015;
      reactance 0.01;
      shunt_impedance 297.890+292.361j;
}

object transformer_configuration {
      name transformer_configuration_3113;
      connect_type SINGLE_PHASE_CENTER_TAPPED;
      install_type PADMOUNT;
      primary_voltage 7216.88 V;
      secondary_voltage 120 V;
      power_rating 50.0;
      powerB_rating 50.0;
      resistance 0.00300;
      reactance 0.00200;
      shunt_impedance 391.760+347.827j;
}

object transformer_configuration {
      name transformer_configuration_3114;
      connect_type SINGLE_PHASE_CENTER_TAPPED;
      install_type PADMOUNT;
      primary_voltage 7216.88 V;
      secondary_voltage 120 V;
      power_rating 5;
      powerB_rating 5;
      resistance 0.015;
      reactance 0.01;
      shunt_impedance 297.890+305.231j;
}

object transformer_configuration {
      name transformer_configuration_3115;
      connect_type SINGLE_PHASE_CENTER_TAPPED;
      install_type POLETOP;
      primary_voltage 7216.88 V;
      secondary_voltage 120 V;
      power_rating 5;
      powerC_rating 5;
      resistance 0.015;
      reactance 0.01;
      shunt_impedance 297.890+344.392j;
}

object transformer_configuration {
      name transformer_configuration_3116;
      connect_type SINGLE_PHASE_CENTER_TAPPED;
      install_type PADMOUNT;
      primary_voltage 7216.88 V;
      secondary_voltage 120 V;
      power_rating 5;
      powerC_rating 5;
      resistance 0.015;
      reactance 0.01;
      shunt_impedance 297.890+262.244j;
}

object transformer_configuration {
      name transformer_configuration_3117;
      connect_type SINGLE_PHASE_CENTER_TAPPED;
      install_type PADMOUNT;
      primary_voltage 7216.88 V;
      secondary_voltage 120 V;
      power_rating 25.0;
      powerC_rating 25.0;
      resistance 0.00600;
      reactance 0.00400;
      shunt_impedance 339.610+331.380j;
}

object transformer_configuration {
      name transformer_configuration_3118;
      connect_type SINGLE_PHASE_CENTER_TAPPED;
      install_type POLETOP;
      primary_voltage 7216.88 V;
      secondary_voltage 120 V;
      power_rating 62.5;
      powerC_rating 62.5;
      resistance 0.00240;
      reactance 0.00160;
      shunt_impedance 417.835+459.820j;
}

object transformer_configuration {
      name transformer_configuration_3119;
      connect_type SINGLE_PHASE_CENTER_TAPPED;
      install_type POLETOP;
      primary_voltage 7216.88 V;
      secondary_voltage 120 V;
      power_rating 37.5;
      powerC_rating 37.5;
      resistance 0.00400;
      reactance 0.00267;
      shunt_impedance 365.685+295.469j;
}

object transformer_configuration {
      name transformer_configuration_3120;
      connect_type SINGLE_PHASE_CENTER_TAPPED;
      install_type POLETOP;
      primary_voltage 7216.88 V;
      secondary_voltage 120 V;
      power_rating 25.0;
      powerC_rating 25.0;
      resistance 0.00600;
      reactance 0.00400;
      shunt_impedance 339.610+360.851j;
}

object transformer_configuration {
      name transformer_configuration_3121;
      connect_type SINGLE_PHASE_CENTER_TAPPED;
      install_type POLETOP;
      primary_voltage 7216.88 V;
      secondary_voltage 120 V;
      power_rating 15.0;
      powerC_rating 15.0;
      resistance 0.01000;
      reactance 0.00667;
      shunt_impedance 318.750+342.751j;
}

object transformer_configuration {
      name transformer_configuration_3122;
      connect_type SINGLE_PHASE_CENTER_TAPPED;
      install_type POLETOP;
      primary_voltage 7216.88 V;
      secondary_voltage 120 V;
      power_rating 30.0;
      powerC_rating 30.0;
      resistance 0.00500;
      reactance 0.00333;
      shunt_impedance 350.040+357.513j;
}

object transformer_configuration {
      name transformer_configuration_3123;
      connect_type SINGLE_PHASE_CENTER_TAPPED;
      install_type PADMOUNT;
      primary_voltage 7216.88 V;
      secondary_voltage 120 V;
      power_rating 15.0;
      powerC_rating 15.0;
      resistance 0.01000;
      reactance 0.00667;
      shunt_impedance 318.750+294.199j;
}

object transformer_configuration {
      name transformer_configuration_3124;
      connect_type SINGLE_PHASE_CENTER_TAPPED;
      install_type POLETOP;
      primary_voltage 7216.88 V;
      secondary_voltage 120 V;
      power_rating 10.0;
      powerC_rating 10.0;
      resistance 0.015;
      reactance 0.01;
      shunt_impedance 308.320+308.100j;
}

object transformer_configuration {
      name transformer_configuration_3125;
      connect_type SINGLE_PHASE_CENTER_TAPPED;
      install_type POLETOP;
      primary_voltage 7216.88 V;
      secondary_voltage 120 V;
      power_rating 5.0;
      powerC_rating 5.0;
      resistance 0.015;
      reactance 0.01;
      shunt_impedance 297.890+300.666j;
}

object transformer_configuration {
      name transformer_configuration_3126;
      connect_type SINGLE_PHASE_CENTER_TAPPED;
      install_type PADMOUNT;
      primary_voltage 7216.88 V;
      secondary_voltage 120 V;
      power_rating 10.0;
      powerC_rating 10.0;
      resistance 0.015;
      reactance 0.01;
      shunt_impedance 308.320+337.156j;
}

object transformer_configuration {
      name transformer_configuration_3127;
      connect_type SINGLE_PHASE_CENTER_TAPPED;
      install_type PADMOUNT;
      primary_voltage 7216.88 V;
      secondary_voltage 120 V;
      power_rating 50.0;
      powerC_rating 50.0;
      resistance 0.00300;
      reactance 0.00200;
      shunt_impedance 391.760+417.754j;
}

object transformer_configuration {
      name transformer_configuration_3128;
      connect_type SINGLE_PHASE_CENTER_TAPPED;
      install_type PADMOUNT;
      primary_voltage 7216.88 V;
      secondary_voltage 120 V;
      power_rating 37.5;
      powerC_rating 37.5;
      resistance 0.00400;
      reactance 0.00267;
      shunt_impedance 365.685+352.878j;
}

object transformer_configuration {
      name transformer_configuration_3129;
      connect_type SINGLE_PHASE_CENTER_TAPPED;
      install_type POLETOP;
      primary_voltage 7216.88 V;
      secondary_voltage 120 V;
      power_rating 50.0;
      powerC_rating 50.0;
      resistance 0.00300;
      reactance 0.00200;
      shunt_impedance 391.760+455.220j;
}

object transformer_configuration {
      name transformer_configuration_3130;
      connect_type SINGLE_PHASE_CENTER_TAPPED;
      install_type PADMOUNT;
      primary_voltage 7216.88 V;
      secondary_voltage 120 V;
      power_rating 30.0;
      powerC_rating 30.0;
      resistance 0.00500;
      reactance 0.00333;
      shunt_impedance 350.040+348.261j;
}

object transformer_configuration {
      name transformer_configuration_3131;
      connect_type SINGLE_PHASE_CENTER_TAPPED;
      install_type PADMOUNT;
      primary_voltage 7216.88 V;
      secondary_voltage 120 V;
      power_rating 5.0;
      powerC_rating 5.0;
      resistance 0.015;
      reactance 0.01;
      shunt_impedance 297.890+273.681j;
}

object transformer_configuration {
      name transformer_configuration_3730;
      connect_type WYE_WYE;
      install_type PADMOUNT;
      primary_voltage 12500.000 V;
      secondary_voltage 480 V;
      power_rating 75.0;
      powerC_rating 75.0;
      resistance 0.00133;
      reactance 0.00667;
      shunt_impedance 443.910+424.448j;
}

object transformer_configuration {
      name transformer_configuration_3731;
      connect_type WYE_WYE;
      install_type POLETOP;
      primary_voltage 12500.000 V;
      secondary_voltage 480 V;
      power_rating 50.0;
      powerA_rating 50.0;
      resistance 0.00200;
      reactance 0.01000;
      shunt_impedance 391.760+425.397j;
}

object transformer_configuration {
      name transformer_configuration_3732;
      connect_type WYE_WYE;
      install_type POLETOP;
      primary_voltage 12500.000 V;
      secondary_voltage 480 V;
      power_rating 37.5;
      powerC_rating 37.5;
      resistance 0.00267;
      reactance 0.01333;
      shunt_impedance 365.685+372.824j;
}

object transformer_configuration {
      name transformer_configuration_3733;
      connect_type WYE_WYE;
      install_type PADMOUNT;
      primary_voltage 12500.000 V;
      secondary_voltage 480 V;
      power_rating 375.0;
      powerA_rating 125.0;
      powerB_rating 125.0;
      powerC_rating 125.0;
      resistance 0.00667;
      reactance 0.03333;
      shunt_impedance 318.750+347.082j;
}

object transformer_configuration {
      name transformer_configuration_3734;
      connect_type WYE_WYE;
      install_type POLETOP;
      primary_voltage 12500.000 V;
      secondary_voltage 480 V;
      power_rating 30.0;
      powerA_rating 0.0;
      powerB_rating 30.0;
      powerC_rating 0.0;
      resistance 0.00333;
      reactance 0.01667;
      shunt_impedance 350.040+352.463j;
}

object transformer_configuration {
      name transformer_configuration_3735;
      connect_type WYE_WYE;
      install_type POLETOP;
      primary_voltage 12500.000 V;
      secondary_voltage 480 V;
      power_rating 25.0;
      powerA_rating 0.0;
      powerB_rating 25.0;
      powerC_rating 0.0;
      resistance 0.00400;
      reactance 0.02000;
      shunt_impedance 339.610+424.065j;
}

object transformer_configuration {
      name transformer_configuration_3736;
      connect_type WYE_WYE;
      install_type POLETOP;
      primary_voltage 12500.000 V;
      secondary_voltage 480 V;
      power_rating 150.0;
      powerA_rating 50.0;
      powerB_rating 50.0;
      powerC_rating 50.0;
      resistance 0.00067;
      reactance 0.00333;
      shunt_impedance 600.360+500.361j;
}

object transformer_configuration {
      name transformer_configuration_3737;
      connect_type WYE_WYE;
      install_type POLETOP;
      primary_voltage 12500.000 V;
      secondary_voltage 480 V;
      power_rating 37.5;
      powerA_rating 37.5;
      resistance 0.00267;
      reactance 0.01333;
      shunt_impedance 365.685+350.475j;
}

object transformer_configuration {
      name transformer_configuration_3738;
      connect_type WYE_WYE;
      install_type POLETOP;
      primary_voltage 12500.000 V;
      secondary_voltage 480 V;
      power_rating 62.5;
      powerC_rating 62.5;
      resistance 0.00160;
      reactance 0.00800;
      shunt_impedance 417.835+414.316j;
}

object transformer_configuration {
      name transformer_configuration_3739;
      connect_type WYE_WYE;
      install_type PADMOUNT;
      primary_voltage 12500.000 V;
      secondary_voltage 480 V;
      power_rating 15.0;
      powerC_rating 15.0;
      resistance 0.00667;
      reactance 0.03333;
      shunt_impedance 318.750+321.595j;
}

object transformer_configuration {
      name transformer_configuration_3740;
      connect_type WYE_WYE;
      install_type POLETOP;
      primary_voltage 12500.000 V;
      secondary_voltage 480 V;
      power_rating 15.0;
      powerA_rating 0.0;
      powerB_rating 15.0;
      powerC_rating 0.0;
      resistance 0.00667;
      reactance 0.03333;
      shunt_impedance 318.750+365.165j;
}

object transformer_configuration {
      name transformer_configuration_3741;
      connect_type WYE_WYE;
      install_type POLETOP;
      primary_voltage 12500.000 V;
      secondary_voltage 480 V;
      power_rating 30.0;
      powerC_rating 30.0;
      resistance 0.00333;
      reactance 0.01667;
      shunt_impedance 350.040+357.722j;
}

object transformer_configuration {
      name transformer_configuration_3742;
      connect_type WYE_WYE;
      install_type PADMOUNT;
      primary_voltage 12500.000 V;
      secondary_voltage 480 V;
      power_rating 25.0;
      powerA_rating 25.0;
      resistance 0.00400;
      reactance 0.02000;
      shunt_impedance 339.610+335.709j;
}

object transformer_configuration {
      name transformer_configuration_3743;
      connect_type WYE_WYE;
      install_type POLETOP;
      primary_voltage 12500.000 V;
      secondary_voltage 480 V;
      power_rating 10.0;
      powerA_rating 10.0;
      resistance 0.01;
      reactance 0.05;
      shunt_impedance 308.320+310.435j;
}

object transformer_configuration {
      name transformer_configuration_3744;
      connect_type WYE_WYE;
      install_type POLETOP;
      primary_voltage 12500.000 V;
      secondary_voltage 480 V;
      power_rating 25.0;
      powerA_rating 25.0;
      resistance 0.00400;
      reactance 0.02000;
      shunt_impedance 339.610+365.132j;
}

object triplex_line_conductor {
      name triplex_4/0 AA;
      resistance 0.48;
      geometric_mean_radius 0.0158;
}

object triplex_line_configuration {
      name triplex_line_configuration_1;
      conductor_1 triplex_4/0 AA;
      conductor_2 triplex_4/0 AA;
      conductor_N triplex_4/0 AA;
      insulation_thickness 0.08;
      diameter 0.522;
}

object underground_line_conductor {
      name underground_line_conductor_2;
      //name 1/0 AAC (Conc);
      rating.summer.continuous 142.0;
      outer_diameter 1.27;
      conductor_gmr 0.01142 ft;
      conductor_diameter 0.362;
      conductor_resistance 0.88704;
      neutral_gmr 0.0489686771417213 ft;
      neutral_resistance 13.86528;
      neutral_diameter 0.0641;
      neutral_strands 16.0;
      shield_gmr 0.00;
      shield_resistance 0.00;
}

object underground_line_conductor {
      name underground_line_conductor_7;
      //name 4/0 AAC (Conc);
      rating.summer.continuous 214.0;
      outer_diameter 1.32;
      conductor_gmr 0.0177 ft;
      conductor_diameter 0.528;
      conductor_resistance 0.433488;
      neutral_gmr 0.0485380344339232 ft;
      neutral_resistance 13.5696;
      neutral_diameter 0.0641;
      neutral_strands 11.0;
      shield_gmr 0.00;
      shield_resistance 0.00;
}

object underground_line_conductor {
      name underground_line_conductor_8;
      //name 1000 CU (Conc);
      rating.summer.continuous 662.0;
      outer_diameter 2.291;
      conductor_gmr 0.03592 ft;
      conductor_diameter 1.117;
      conductor_resistance 0.057024;
      neutral_gmr 0.0897563211395267 ft;
      neutral_resistance 3.44784;
      neutral_diameter 0.1285;
      neutral_strands 20.0;
      shield_gmr 0.00;
      shield_resistance 0.00;
}

object transformer_configuration {
     name trans_config_to_feeder;
     connect_type WYE_WYE;
     install_type PADMOUNT;
     primary_voltage 230000;
     secondary_voltage 12500.000;
     power_rating 8.4 MVA;
     impedance 0.00033+0.0022j;
}

//Start actual feeder

object substation {
     name network_node;
     bustype SWING;
     nominal_voltage 133000;
     base_power 10MVA;
     power_convergence_value 100VA;
     phases ABCN;
     object metrics_collector {
         interval 300;
     };
}

#ifdef USE_FNCS
object fncs_msg {
     name gld1;
     parent network_node;
     configure SGIP1b_gridlabd.txt;
     option "transport:hostname localhost, port 5570";
     aggregate_subscriptions true;
     aggregate_publications true;
}
#endif

#ifdef USE_HELICS
object helics_msg {
     name gld1;
     configure SGIP1b_gridlabd.json;
}
#endif

object transformer {
     name substation_transformer;
     from network_node;
     to R1_12_47_1_node_617;
     phases ABCN;
     configuration trans_config_to_feeder;
}


object regulator {
      name R1_12_47_1_reg_1;
      from R1_12_47_1_node_617;
      to R1_12_47_1_meter_21;
      phases ABCN;
      configuration feeder_reg_cfg;
      object metrics_collector {
         interval 300;
      };
}
object capacitor {
      name R1_12_47_1_cap_1;
      phases ABCN;
      pt_phase B;
      parent R1_12_47_1_node_422;
      phases_connected ABC;
      control VOLT;
      voltage_set_high 7300;
      voltage_set_low 7100;
      capacitor_A 0.15 MVAr;
      capacitor_B 0.15 MVAr;
      capacitor_C 0.15 MVAr;
      control_level INDIVIDUAL;
      switchA CLOSED;
      switchB CLOSED;
      switchC CLOSED;
      time_delay 30.0;
      dwell_time 30.0;
      cap_nominal_voltage 7220;
      nominal_voltage 7216.88;
      object metrics_collector {
         interval 300;
      };
}
object capacitor {
      name R1_12_47_1_cap_2;
      phases ABCN;
      pt_phase B;
      parent R1_12_47_1_node_216;
      phases_connected ABC;
      control VOLT;
      voltage_set_high 7300;
      voltage_set_low 7100;
      capacitor_A 0.3 MVAr;
      capacitor_B 0.3 MVAr;
      capacitor_C 0.3 MVAr;
      control_level INDIVIDUAL;
      time_delay 30.0;
      dwell_time 30.0;
      cap_nominal_voltage 7220;
      nominal_voltage 7216.88;
      object metrics_collector {
         interval 300;
      };
}
object capacitor {
      name R1_12_47_1_cap_3;
      phases CN;
      pt_phase C;
      parent R1_12_47_1_node_248;
      phases_connected C;
      control MANUAL;
      capacitor_A 0.15 MVAr;
      capacitor_B 0.15 MVAr;
      capacitor_C 0.15 MVAr;
      control_level INDIVIDUAL;
      switchA CLOSED;
      switchB CLOSED;
      switchC CLOSED;
      time_delay 30.0;
      dwell_time 30.0;
      cap_nominal_voltage 7216.88;
      nominal_voltage 7216.88;
      object metrics_collector {
         interval 300;
      };
}
object fuse {
      name R1_12_47_1_fuse_1;
      phases AN;
      from R1_12_47_1_node_596;
      to R1_12_47_1_node_599;
      current_limit 50000;// 40;
      status CLOSED;
}
object fuse {
      name R1_12_47_1_fuse_2;
      phases AN;
      from R1_12_47_1_node_594;
      to R1_12_47_1_node_595;
      current_limit 50000;// 65;
      status CLOSED;
}
object fuse {
      name R1_12_47_1_fuse_3;
      phases AN;
      from R1_12_47_1_node_508;
      to R1_12_47_1_node_510;
      current_limit 50000;// 15;
      status CLOSED;
}
object fuse {
      name R1_12_47_1_fuse_4;
      phases AN;
      from R1_12_47_1_node_503;
      to R1_12_47_1_node_511;
      current_limit 50000;// 40;
      status CLOSED;
}
object fuse {
      name R1_12_47_1_fuse_5;
      phases AN;
      from R1_12_47_1_node_512;
      to R1_12_47_1_node_513;
      current_limit 50000;// 25;
      status CLOSED;
}
object fuse {
      name R1_12_47_1_fuse_6;
      phases AN;
      from R1_12_47_1_node_474;
      to R1_12_47_1_node_477;
      current_limit 50000;// 40;
      status CLOSED;
}
object fuse {
      name R1_12_47_1_fuse_7;
      phases AN;
      from R1_12_47_1_node_474;
      to R1_12_47_1_node_480;
      current_limit 50000;// 40;
      status CLOSED;
}
object fuse {
      name R1_12_47_1_fuse_8;
      phases AN;
      from R1_12_47_1_node_522;
      to R1_12_47_1_node_524;
      current_limit 50000;// 25;
      status CLOSED;
}
object fuse {
      name R1_12_47_1_fuse_9;
      phases AN;
      from R1_12_47_1_node_576;
      to R1_12_47_1_node_577;
      current_limit 50000;// 65;
      status CLOSED;
}
object fuse {
      name R1_12_47_1_fuse_10;
      phases AN;
      from R1_12_47_1_node_515;
      to R1_12_47_1_node_518;
      current_limit 50000;// 6;
      status CLOSED;
}
object fuse {
      name R1_12_47_1_fuse_11;
      phases AN;
      from R1_12_47_1_node_580;
      to R1_12_47_1_node_581;
      current_limit 50000;// 10;
      status CLOSED;
}
object fuse {
      name R1_12_47_1_fuse_12;
      phases BN;
      from R1_12_47_1_node_562;
      to R1_12_47_1_node_574;
      current_limit 50000;// 25;
      status CLOSED;
}
object fuse {
      name R1_12_47_1_fuse_13;
      phases CN;
      from R1_12_47_1_node_561;
      to R1_12_47_1_node_567;
      current_limit 50000;// 65;
      status CLOSED;
}
object fuse {
      name R1_12_47_1_fuse_14;
      phases AN;
      from R1_12_47_1_node_485;
      to R1_12_47_1_node_487;
      current_limit 50000;// 15;
      status CLOSED;
}
object fuse {
      name R1_12_47_1_fuse_15;
      phases AN;
      from R1_12_47_1_node_560;
      to R1_12_47_1_node_566;
      current_limit 50000;// 25;
      status CLOSED;
}
object fuse {
      name R1_12_47_1_fuse_16;
      phases AN;
      from R1_12_47_1_node_569;
      to R1_12_47_1_node_570;
      current_limit 50000;// 40;
      status CLOSED;
}
object fuse {
      name R1_12_47_1_fuse_17;
      phases AN;
      from R1_12_47_1_node_496;
      to R1_12_47_1_node_498;
      current_limit 50000;// 25;
      status CLOSED;
}
object fuse {
      name R1_12_47_1_fuse_18;
      phases AN;
      from R1_12_47_1_node_490;
      to R1_12_47_1_node_492;
      current_limit 50000;// 25;
      status CLOSED;
}
object fuse {
      name R1_12_47_1_fuse_19;
      phases CN;
      from R1_12_47_1_node_559;
      to R1_12_47_1_node_563;
      current_limit 50000;// 25;
      status CLOSED;
}
object fuse {
      name R1_12_47_1_fuse_20;
      phases AN;
      from R1_12_47_1_node_417;
      to R1_12_47_1_node_418;
      current_limit 50000;// 25;
      status CLOSED;
}
object fuse {
      name R1_12_47_1_fuse_21;
      phases AN;
      from R1_12_47_1_node_552;
      to R1_12_47_1_node_553;
      current_limit 50000;// 25;
      status CLOSED;
}
object fuse {
      name R1_12_47_1_fuse_22;
      phases AN;
      from R1_12_47_1_node_461;
      to R1_12_47_1_node_466;
      current_limit 50000;// 15;
      status CLOSED;
}
object fuse {
      name R1_12_47_1_fuse_23;
      phases CN;
      from R1_12_47_1_node_551;
      to R1_12_47_1_node_555;
      current_limit 50000;// 25;
      status CLOSED;
}
object fuse {
      name R1_12_47_1_fuse_24;
      phases ABCN;
      from R1_12_47_1_node_456;
      to R1_12_47_1_node_457;
      current_limit 50000;// 65;
      status CLOSED;
}
object fuse {
      name R1_12_47_1_fuse_25;
      phases AN;
      from R1_12_47_1_node_532;
      to R1_12_47_1_node_534;
      current_limit 50000;// 15;
      status CLOSED;
}
object fuse {
      name R1_12_47_1_fuse_26;
      phases AN;
      from R1_12_47_1_node_547;
      to R1_12_47_1_node_558;
      current_limit 50000;// 15;
      status CLOSED;
}
object fuse {
      name R1_12_47_1_fuse_27;
      phases CN;
      from R1_12_47_1_node_546;
      to R1_12_47_1_node_548;
      current_limit 50000;// 15;
      status CLOSED;
}
object fuse {
      name R1_12_47_1_fuse_28;
      phases BN;
      from R1_12_47_1_node_449;
      to R1_12_47_1_node_450;
      current_limit 50000;// 40;
      status CLOSED;
}
object fuse {
      name R1_12_47_1_fuse_29;
      phases BN;
      from R1_12_47_1_node_546;
      to R1_12_47_1_node_556;
      current_limit 50000;// 15;
      status CLOSED;
}
object fuse {
      name R1_12_47_1_fuse_30;
      phases BN;
      from R1_12_47_1_node_446;
      to R1_12_47_1_node_447;
      current_limit 50000;// 15;
      status CLOSED;
}
object fuse {
      name R1_12_47_1_fuse_31;
      phases AN;
      from R1_12_47_1_node_326;
      to R1_12_47_1_node_327;
      current_limit 50000;// 25;
      status CLOSED;
}
object fuse {
      name R1_12_47_1_fuse_32;
      phases BN;
      from R1_12_47_1_node_539;
      to R1_12_47_1_node_541;
      current_limit 50000;// 40;
      status CLOSED;
}
object fuse {
      name R1_12_47_1_fuse_33;
      phases AN;
      from R1_12_47_1_node_540;
      to R1_12_47_1_node_545;
      current_limit 50000;// 25;
      status CLOSED;
}
object fuse {
      name R1_12_47_1_fuse_34;
      phases ABCN;
      from R1_12_47_1_node_434;
      to R1_12_47_1_node_435;
      current_limit 50000;// 65;
      status CLOSED;
}
object fuse {
      name R1_12_47_1_fuse_35;
      phases AN;
      from R1_12_47_1_node_355;
      to R1_12_47_1_node_356;
      current_limit 50000;// 25;
      status CLOSED;
}
object fuse {
      name R1_12_47_1_fuse_36;
      phases CN;
      from R1_12_47_1_node_359;
      to R1_12_47_1_node_419;
      current_limit 50000;// 25;
      status CLOSED;
}
object fuse {
      name R1_12_47_1_fuse_37;
      phases AN;
      from R1_12_47_1_node_229;
      to R1_12_47_1_node_232;
      current_limit 50000;// 10;
      status CLOSED;
}
object fuse {
      name R1_12_47_1_fuse_38;
      phases AN;
      from R1_12_47_1_node_538;
      to R1_12_47_1_node_543;
      current_limit 50000;// 40;
      status CLOSED;
}
object fuse {
      name R1_12_47_1_fuse_39;
      phases AN;
      from R1_12_47_1_node_543;
      to R1_12_47_1_node_544;
      current_limit 50000;// 25;
      status CLOSED;
}
object fuse {
      name R1_12_47_1_fuse_40;
      phases AN;
      from R1_12_47_1_node_342;
      to R1_12_47_1_node_354;
      current_limit 50000;// 15;
      status CLOSED;
}
object fuse {
      name R1_12_47_1_fuse_41;
      phases AN;
      from R1_12_47_1_node_335;
      to R1_12_47_1_node_336;
      current_limit 50000;// 25;
      status CLOSED;
}
object fuse {
      name R1_12_47_1_fuse_42;
      phases CN;
      from R1_12_47_1_node_536;
      to R1_12_47_1_node_537;
      current_limit 50000;// 25;
      status CLOSED;
}
object fuse {
      name R1_12_47_1_fuse_43;
      phases AN;
      from R1_12_47_1_node_346;
      to R1_12_47_1_node_410;
      current_limit 50000;// 65;
      status CLOSED;
}
object fuse {
      name R1_12_47_1_fuse_44;
      phases CN;
      from R1_12_47_1_node_345;
      to R1_12_47_1_node_358;
      current_limit 50000;// 65;
      status CLOSED;
}
object fuse {
      name R1_12_47_1_fuse_45;
      phases CN;
      from R1_12_47_1_node_441;
      to R1_12_47_1_node_442;
      current_limit 50000;// 15;
      status CLOSED;
}
object fuse {
      name R1_12_47_1_fuse_46;
      phases AN;
      from R1_12_47_1_node_420;
      to R1_12_47_1_node_421;
      current_limit 50000;// 25;
      status CLOSED;
}
object fuse {
      name R1_12_47_1_fuse_47;
      phases ABCN;
      from R1_12_47_1_node_439;
      to R1_12_47_1_node_440;
      current_limit 50000;// 65;
      status CLOSED;
}
object fuse {
      name R1_12_47_1_fuse_48;
      phases ABCN;
      from R1_12_47_1_node_217;
      to R1_12_47_1_node_334;
      current_limit 50000;// 1000;
      status CLOSED;
}
object fuse {
      name R1_12_47_1_fuse_49;
      phases BN;
      from R1_12_47_1_node_433;
      to R1_12_47_1_node_432;
      current_limit 50000;// 15;
      status CLOSED;
}
object fuse {
      name R1_12_47_1_fuse_50;
      phases AN;
      from R1_12_47_1_node_233;
      to R1_12_47_1_node_237;
      current_limit 50000;// 15;
      status CLOSED;
}
object fuse {
      name R1_12_47_1_fuse_51;
      phases ABCN;
      from R1_12_47_1_node_234;
      to R1_12_47_1_node_240;
      current_limit 50000;// 10000;
      status CLOSED;
}
object fuse {
      name R1_12_47_1_fuse_52;
      phases CN;
      from R1_12_47_1_node_420;
      to R1_12_47_1_node_423;
      current_limit 50000;// 40;
      status CLOSED;
}
object fuse {
      name R1_12_47_1_fuse_53;
      phases AN;
      from R1_12_47_1_node_338;
      to R1_12_47_1_node_347;
      current_limit 50000;// 40;
      status CLOSED;
}
object fuse {
      name R1_12_47_1_fuse_54;
      phases AN;
      from R1_12_47_1_node_347;
      to R1_12_47_1_node_353;
      current_limit 50000;// 40;
      status CLOSED;
}
object fuse {
      name R1_12_47_1_fuse_55;
      phases CN;
      from R1_12_47_1_node_331;
      to R1_12_47_1_node_332;
      current_limit 50000;// 150;
      status CLOSED;
}
object fuse {
      name R1_12_47_1_fuse_56;
      phases AN;
      from R1_12_47_1_node_361;
      to R1_12_47_1_node_365;
      current_limit 50000;// 40;
      status CLOSED;
}
object fuse {
      name R1_12_47_1_fuse_57;
      phases CN;
      from R1_12_47_1_node_229;
      to R1_12_47_1_node_230;
      current_limit 50000;// 25;
      status CLOSED;
}
object fuse {
      name R1_12_47_1_fuse_58;
      phases AN;
      from R1_12_47_1_node_348;
      to R1_12_47_1_node_352;
      current_limit 50000;// 25;
      status CLOSED;
}
object fuse {
      name R1_12_47_1_fuse_59;
      phases ABCN;
      from R1_12_47_1_node_361;
      to R1_12_47_1_node_362;
      current_limit 50000;// 65;
      status CLOSED;
}
object fuse {
      name R1_12_47_1_fuse_60;
      phases CN;
      from R1_12_47_1_node_218;
      to R1_12_47_1_node_219;
      current_limit 50000;// 100;
      status CLOSED;
}
object fuse {
      name R1_12_47_1_fuse_61;
      phases AN;
      from R1_12_47_1_node_350;
      to R1_12_47_1_node_351;
      current_limit 50000;// 25;
      status CLOSED;
}
object fuse {
      name R1_12_47_1_fuse_62;
      phases BN;
      from R1_12_47_1_node_211;
      to R1_12_47_1_node_213;
      current_limit 50000;// 25;
      status CLOSED;
}
object fuse {
      name R1_12_47_1_fuse_63;
      phases AN;
      from R1_12_47_1_node_374;
      to R1_12_47_1_node_381;
      current_limit 50000;// 15;
      status CLOSED;
}
object fuse {
      name R1_12_47_1_fuse_64;
      phases CN;
      from R1_12_47_1_node_368;
      to R1_12_47_1_node_370;
      current_limit 50000;// 25;
      status CLOSED;
}
object fuse {
      name R1_12_47_1_fuse_65;
      phases AN;
      from R1_12_47_1_node_371;
      to R1_12_47_1_node_372;
      current_limit 50000;// 40;
      status CLOSED;
}
object fuse {
      name R1_12_47_1_fuse_66;
      phases BN;
      from R1_12_47_1_node_203;
      to R1_12_47_1_node_208;
      current_limit 50000;// 40;
      status CLOSED;
}
object fuse {
      name R1_12_47_1_fuse_67;
      phases AN;
      from R1_12_47_1_node_372;
      to R1_12_47_1_node_380;
      current_limit 50000;// 25;
      status CLOSED;
}
object fuse {
      name R1_12_47_1_fuse_68;
      phases AN;
      from R1_12_47_1_node_383;
      to R1_12_47_1_node_384;
      current_limit 50000;// 25;
      status CLOSED;
}
object fuse {
      name R1_12_47_1_fuse_69;
      phases AN;
      from R1_12_47_1_node_391;
      to R1_12_47_1_node_394;
      current_limit 50000;// 25;
      status CLOSED;
}
object fuse {
      name R1_12_47_1_fuse_70;
      phases BN;
      from R1_12_47_1_node_211;
      to R1_12_47_1_node_214;
      current_limit 50000;// 25;
      status CLOSED;
}
object fuse {
      name R1_12_47_1_fuse_71;
      phases BN;
      from R1_12_47_1_node_393;
      to R1_12_47_1_node_396;
      current_limit 50000;// 25;
      status CLOSED;
}
object fuse {
      name R1_12_47_1_fuse_72;
      phases BN;
      from R1_12_47_1_node_205;
      to R1_12_47_1_node_206;
      current_limit 50000;// 40;
      status CLOSED;
}
object fuse {
      name R1_12_47_1_fuse_73;
      phases BN;
      from R1_12_47_1_node_175;
      to R1_12_47_1_node_205;
      current_limit 50000;// 100;
      status CLOSED;
}
object fuse {
      name R1_12_47_1_fuse_74;
      phases AN;
      from R1_12_47_1_node_140;
      to R1_12_47_1_node_163;
      current_limit 50000;// 65;
      status CLOSED;
}
object fuse {
      name R1_12_47_1_fuse_75;
      phases CN;
      from R1_12_47_1_node_140;
      to R1_12_47_1_node_167;
      current_limit 50000;// 1000;
      status CLOSED;
}
object fuse {
      name R1_12_47_1_fuse_76;
      phases CN;
      from R1_12_47_1_node_168;
      to R1_12_47_1_node_170;
      current_limit 50000;// 40;
      status CLOSED;
}
object fuse {
      name R1_12_47_1_fuse_77;
      phases AN;
      from R1_12_47_1_node_159;
      to R1_12_47_1_node_160;
      current_limit 50000;// 15;
      status CLOSED;
}
object fuse {
      name R1_12_47_1_fuse_78;
      phases BN;
      from R1_12_47_1_node_403;
      to R1_12_47_1_node_405;
      current_limit 50000;// 25;
      status CLOSED;
}
object fuse {
      name R1_12_47_1_fuse_79;
      phases CN;
      from R1_12_47_1_node_173;
      to R1_12_47_1_node_182;
      current_limit 50000;// 650;
      status CLOSED;
}
object fuse {
      name R1_12_47_1_fuse_80;
      phases CN;
      from R1_12_47_1_node_182;
      to R1_12_47_1_node_185;
      current_limit 50000;// 25;
      status CLOSED;
}
object fuse {
      name R1_12_47_1_fuse_81;
      phases AN;
      from R1_12_47_1_node_133;
      to R1_12_47_1_node_141;
      current_limit 50000;// 65;
      status CLOSED;
}
object fuse {
      name R1_12_47_1_fuse_82;
      phases AN;
      from R1_12_47_1_node_404;
      to R1_12_47_1_node_408;
      current_limit 50000;// 25;
      status CLOSED;
}
object fuse {
      name R1_12_47_1_fuse_83;
      phases CN;
      from R1_12_47_1_node_183;
      to R1_12_47_1_node_186;
      current_limit 50000;// 25;
      status CLOSED;
}
object fuse {
      name R1_12_47_1_fuse_84;
      phases AN;
      from R1_12_47_1_node_147;
      to R1_12_47_1_node_149;
      current_limit 50000;// 40;
      status CLOSED;
}
object fuse {
      name R1_12_47_1_fuse_85;
      phases BN;
      from R1_12_47_1_node_134;
      to R1_12_47_1_node_135;
      current_limit 50000;// 25;
      status CLOSED;
}
object fuse {
      name R1_12_47_1_fuse_86;
      phases CN;
      from R1_12_47_1_node_189;
      to R1_12_47_1_node_190;
      current_limit 50000;// 15;
      status CLOSED;
}
object fuse {
      name R1_12_47_1_fuse_87;
      phases BN;
      from R1_12_47_1_node_74;
      to R1_12_47_1_node_78;
      current_limit 50000;// 25;
      status CLOSED;
}
object fuse {
      name R1_12_47_1_fuse_88;
      phases CN;
      from R1_12_47_1_node_191;
      to R1_12_47_1_node_193;
      current_limit 50000;// 25;
      status CLOSED;
}
object fuse {
      name R1_12_47_1_fuse_89;
      phases AN;
      from R1_12_47_1_node_67;
      to R1_12_47_1_node_72;
      current_limit 50000;// 15;
      status CLOSED;
}
object fuse {
      name R1_12_47_1_fuse_90;
      phases AN;
      from R1_12_47_1_node_23;
      to R1_12_47_1_node_24;
      current_limit 50000;// 15;
      status CLOSED;
}
object fuse {
      name R1_12_47_1_fuse_91;
      phases BN;
      from R1_12_47_1_node_44;
      to R1_12_47_1_node_128;
      current_limit 50000;// 25;
      status CLOSED;
}
object fuse {
      name R1_12_47_1_fuse_92;
      phases CN;
      from R1_12_47_1_node_44;
      to R1_12_47_1_node_45;
      current_limit 50000;// 25;
      status CLOSED;
}
object fuse {
      name R1_12_47_1_fuse_93;
      phases BN;
      from R1_12_47_1_node_44;
      to R1_12_47_1_node_127;
      current_limit 50000;// 10;
      status CLOSED;
}
object fuse {
      name R1_12_47_1_fuse_94;
      phases AN;
      from R1_12_47_1_node_64;
      to R1_12_47_1_node_70;
      current_limit 50000;// 25;
      status CLOSED;
}
object fuse {
      name R1_12_47_1_fuse_95;
      phases CN;
      from R1_12_47_1_node_195;
      to R1_12_47_1_node_197;
      current_limit 50000;// 40;
      status CLOSED;
}
object fuse {
      name R1_12_47_1_fuse_96;
      phases CN;
      from R1_12_47_1_node_195;
      to R1_12_47_1_node_196;
      current_limit 50000;// 25;
      status CLOSED;
}
object fuse {
      name R1_12_47_1_fuse_97;
      phases AN;
      from R1_12_47_1_node_63;
      to R1_12_47_1_node_69;
      current_limit 50000;// 40;
      status CLOSED;
}
object fuse {
      name R1_12_47_1_fuse_98;
      phases ABCN;
      from R1_12_47_1_node_61;
      to R1_12_47_1_node_62;
      current_limit 50000;// 65;
      status CLOSED;
}
object fuse {
      name R1_12_47_1_fuse_99;
      phases AN;
      from R1_12_47_1_node_62;
      to R1_12_47_1_node_68;
      current_limit 50000;// 25;
      status CLOSED;
}
object fuse {
      name R1_12_47_1_fuse_100;
      phases AN;
      from R1_12_47_1_node_6;
      to R1_12_47_1_node_28;
      current_limit 50000;// 40;
      status CLOSED;
}
object fuse {
      name R1_12_47_1_fuse_101;
      phases AN;
      from R1_12_47_1_node_21;
      to R1_12_47_1_node_22;
      current_limit 50000;// 6;
      status CLOSED;
}
object fuse {
      name R1_12_47_1_fuse_102;
      phases AN;
      from R1_12_47_1_node_13;
      to R1_12_47_1_node_34;
      current_limit 50000;// 25;
      status CLOSED;
}
object fuse {
      name R1_12_47_1_fuse_103;
      phases ABCN;
      from R1_12_47_1_node_47;
      to R1_12_47_1_node_48;
      current_limit 50000;// 100;
      status CLOSED;
}
object fuse {
      name R1_12_47_1_fuse_104;
      phases BN;
      from R1_12_47_1_node_14;
      to R1_12_47_1_node_38;
      current_limit 50000;// 15;
      status CLOSED;
}
object fuse {
      name R1_12_47_1_fuse_105;
      phases AN;
      from R1_12_47_1_node_11;
      to R1_12_47_1_node_31;
      current_limit 50000;// 25;
      status CLOSED;
}
object fuse {
      name R1_12_47_1_fuse_106;
      phases ABCN;
      from R1_12_47_1_node_61;
      to R1_12_47_1_node_79;
      current_limit 50000;// 65;
      status CLOSED;
}
object fuse {
      name R1_12_47_1_fuse_107;
      phases AN;
      from R1_12_47_1_node_25;
      to R1_12_47_1_node_26;
      current_limit 50000;// 25;
      status CLOSED;
}
object fuse {
      name R1_12_47_1_fuse_108;
      phases BN;
      from R1_12_47_1_node_7;
      to R1_12_47_1_node_29;
      current_limit 50000;// 25;
      status CLOSED;
}
object fuse {
      name R1_12_47_1_fuse_109;
      phases CN;
      from R1_12_47_1_node_52;
      to R1_12_47_1_node_54;
      current_limit 50000;// 10;
      status CLOSED;
}
object fuse {
      name R1_12_47_1_fuse_110;
      phases AN;
      from R1_12_47_1_node_50;
      to R1_12_47_1_node_53;
      current_limit 50000;// 25;
      status CLOSED;
}
object fuse {
      name R1_12_47_1_fuse_111;
      phases BN;
      from R1_12_47_1_node_80;
      to R1_12_47_1_node_84;
      current_limit 50000;// 100;
      status CLOSED;
}
object fuse {
      name R1_12_47_1_fuse_112;
      phases AN;
      from R1_12_47_1_node_117;
      to R1_12_47_1_node_119;
      current_limit 50000;// 25;
      status CLOSED;
}
object fuse {
      name R1_12_47_1_fuse_113;
      phases CN;
      from R1_12_47_1_node_88;
      to R1_12_47_1_node_91;
      current_limit 50000;// 25;
      status CLOSED;
}
object fuse {
      name R1_12_47_1_fuse_114;
      phases AN;
      from R1_12_47_1_node_88;
      to R1_12_47_1_node_106;
      current_limit 50000;// 40;
      status CLOSED;
}
object fuse {
      name R1_12_47_1_fuse_115;
      phases AN;
      from R1_12_47_1_node_121;
      to R1_12_47_1_node_125;
      current_limit 50000;// 25;
      status CLOSED;
}
object fuse {
      name R1_12_47_1_fuse_116;
      phases CN;
      from R1_12_47_1_node_89;
      to R1_12_47_1_node_93;
      current_limit 50000;// 65;
      status CLOSED;
}
object fuse {
      name R1_12_47_1_fuse_117;
      phases AN;
      from R1_12_47_1_node_117;
      to R1_12_47_1_node_118;
      current_limit 50000;// 25;
      status CLOSED;
}
object fuse {
      name R1_12_47_1_fuse_118;
      phases AN;
      from R1_12_47_1_node_107;
      to R1_12_47_1_node_108;
      current_limit 50000;// 40;
      status CLOSED;
}
object fuse {
      name R1_12_47_1_fuse_119;
      phases CN;
      from R1_12_47_1_node_101;
      to R1_12_47_1_node_102;
      current_limit 50000;// 25;
      status CLOSED;
}
object fuse {
      name R1_12_47_1_fuse_120;
      phases AN;
      from R1_12_47_1_node_123;
      to R1_12_47_1_node_124;
      current_limit 50000;// 25;
      status CLOSED;
}
object fuse {
      name R1_12_47_1_fuse_121;
      phases CN;
      from R1_12_47_1_node_90;
      to R1_12_47_1_node_97;
      current_limit 50000;// 65;
      status CLOSED;
}
object fuse {
      name R1_12_47_1_fuse_122;
      phases CN;
      from R1_12_47_1_node_103;
      to R1_12_47_1_node_105;
      current_limit 50000;// 40;
      status CLOSED;
}

object node {
      name R1_12_47_1_load_1;
      parent R1_12_47_1_meter_1;
      phases CN;
      nominal_voltage 277.00;
}


object node {
      name R1_12_47_1_load_2;
      parent R1_12_47_1_meter_2;
      phases AN;
      nominal_voltage 277.00;
}


object node {
      name R1_12_47_1_load_3;
      parent R1_12_47_1_meter_3;
      phases CN;
      nominal_voltage 277.00;
}


object node {
      name R1_12_47_1_load_4;
      parent R1_12_47_1_meter_4;
      phases ABCN;
      nominal_voltage 277.00;
}


object node {
      name R1_12_47_1_load_5;
      parent R1_12_47_1_meter_5;
      phases ABCN;
      nominal_voltage 277.00;
}


object node {
      name R1_12_47_1_load_6;
      parent R1_12_47_1_meter_6;
      phases ABCN;
      nominal_voltage 277.00;
}


object node {
      name R1_12_47_1_load_7;
      parent R1_12_47_1_meter_7;
      phases ABCN;
      nominal_voltage 277.00;
}


object node {
      name R1_12_47_1_load_8;
      parent R1_12_47_1_meter_8;
      phases AN;
      nominal_voltage 277.00;
}


object node {
      name R1_12_47_1_load_9;
      parent R1_12_47_1_meter_9;
      phases CN;
      nominal_voltage 277.00;
}


object node {
      name R1_12_47_1_load_10;
      parent R1_12_47_1_meter_10;
      phases CN;
      nominal_voltage 277.00;
}


object node {
      name R1_12_47_1_load_11;
      parent R1_12_47_1_meter_11;
      phases ABCN;
      nominal_voltage 277.00;
}


object node {
      name R1_12_47_1_load_12;
      parent R1_12_47_1_meter_12;
      phases CN;
      nominal_voltage 277.00;
}


object node {
      name R1_12_47_1_load_13;
      parent R1_12_47_1_meter_13;
      phases AN;
      nominal_voltage 277.00;
}


object node {
      name R1_12_47_1_load_14;
      parent R1_12_47_1_meter_14;
      phases AN;
      nominal_voltage 277.00;
}


object node {
      name R1_12_47_1_load_15;
      parent R1_12_47_1_meter_15;
      phases AN;
      nominal_voltage 277.00;
}


object node {
      name R1_12_47_1_load_16;
      parent R1_12_47_1_meter_16;
      phases AN;
      nominal_voltage 277.00;
}


object node {
      name R1_12_47_1_load_17;
      parent R1_12_47_1_meter_17;
      phases AN;
      nominal_voltage 277.00;
}


object node {
      name R1_12_47_1_load_18;
      parent R1_12_47_1_meter_18;
      phases AN;
      nominal_voltage 277.00;
}


object node {
      name R1_12_47_1_load_19;
      parent R1_12_47_1_meter_19;
      phases ABCN;
      nominal_voltage 277.00;
}


object node {
      name R1_12_47_1_load_20;
      parent R1_12_47_1_meter_20;
      phases ABCN;
      nominal_voltage 277.00;
}

object meter {
      name R1_12_47_1_meter_1;
      phases CN;
      nominal_voltage 277;
}
object meter {
      name R1_12_47_1_meter_2;
      phases AN;
      nominal_voltage 277;
}
object meter {
...